***NMOS_ TRANS*****

.title nmos_trans
.global  gnd

.temp 27

.lib "/home/rudransh/internship/eda-technology/sky130/models/spice/models/sky130.lib.spice ff"



xmn d g s b sky130_fd_pr__nfet_01v8  w=1 l=1 m=5

Vgs g gnd dc  1.8
Vss s s1 dc 0
Css s1 gnd 10f
.ic v(s1)=0
Vbs b gnd dc 0
Vds d gnd dc 1.8

.tran 5p 10n

.control
run
set color0=white
set color1=black
set color2=green
plot v(s1) 
.endc
.end

 
